Feeders/8500-Node/IEEE8500_VLN_Node_true.Txt

LINE-GROUND and LINE-LINE VOLTAGES BY BUS & NODE

Bus                  Node    VLN (kV)   Angle      pu     Base kV    Node-Node   VLL (kV)  Angle      pu

SOURCEBUS .......... 1       69.715 /_    0.0      1.05   115.000        1-2     120.75 /_   30.0      1.05
   -                 2       69.715 /_ -120.0      1.05   115.000        2-3     120.75 /_  -90.0      1.05
   -                 3       69.715 /_  120.0      1.05   115.000        3-1     120.75 /_  150.0      1.05
_HVMV_SUB_LSB ...... 1       7.5556 /_  -30.8    1.0495    12.470        1-2     13.075 /_   -0.7    1.0485
   -                 2        7.563 /_ -150.5    1.0505    12.470        2-3     13.073 /_ -120.3    1.0484
   -                 3       7.5643 /_   89.9    1.0507    12.470        3-1      13.14 /_  119.5    1.0537
HVMV_SUB_48332 ..... 1       7.5556 /_  -30.8    1.0495    12.470        1-2     13.075 /_   -0.7    1.0485
   -                 2        7.563 /_ -150.5    1.0505    12.470        2-3     13.073 /_ -120.3    1.0484
   -                 3       7.5643 /_   89.9    1.0507    12.470        3-1      13.14 /_  119.5    1.0537
M1009763 ........... 1       7.2067 /_  -33.9     1.001    12.470        1-2     12.745 /_   -4.9    1.0221
   -                 2       7.3268 /_ -156.5    1.0177    12.470        2-3     12.116 /_ -121.8   0.97164
   -                 3        7.381 /_   92.6    1.0252    12.470        3-1     13.027 /_  119.0    1.0447
L2673322 ........... 2       7.3267 /_ -156.5    1.0177    12.470
M1069148 ........... 3       7.4096 /_   89.0    1.0292    12.470
L2673309 ........... 3       7.4095 /_   89.0    1.0292    12.470
M1069588 ........... 2       7.2532 /_ -155.1    1.0074    12.470
L2804270 ........... 2       7.2531 /_ -155.1    1.0074    12.470
M3036164 ........... 2       7.2504 /_ -156.2    1.0071    12.470
L2935553 ........... 2       7.2485 /_ -156.2    1.0068    12.470
M1209749 ........... 2       7.5261 /_ -151.1    1.0454    12.470
L2748840 ........... 2       7.5261 /_ -151.1    1.0454    12.470
M1108264 ........... 2       7.4695 /_ -152.8    1.0375    12.470
M1108263 ........... 2       7.4693 /_ -152.8    1.0375    12.470
L3085398 ........... 1       7.2317 /_  -33.9    1.0045    12.470        1-2     12.788 /_   -4.9    1.0255
   -                 2       7.3551 /_ -156.4    1.0216    12.470        2-3     12.145 /_ -121.9   0.97392
   -                 3       7.3813 /_   92.6    1.0252    12.470        3-1      13.05 /_  119.0    1.0465
M1026891 ........... 1       7.2298 /_  -33.9    1.0042    12.470        1-2     12.784 /_   -4.9    1.0252
   -                 2       7.3514 /_ -156.4    1.0211    12.470        2-3     12.141 /_ -121.9   0.97364
   -                 3       7.3813 /_   92.6    1.0252    12.470        3-1     13.048 /_  119.0    1.0464
L3216367 ........... 1       7.3306 /_  -33.3    1.0182    12.470        1-2      12.86 /_   -4.7    1.0313
   -                 2       7.3102 /_ -156.2    1.0154    12.470        2-3      12.14 /_ -121.8   0.97352
   -                 3       7.3698 /_   92.3    1.0237    12.470        3-1     13.071 /_  119.4    1.0482
M1069468 ........... 1       7.3304 /_  -33.3    1.0182    12.470        1-2     12.859 /_   -4.8    1.0312
   -                 2       7.3087 /_ -156.2    1.0152    12.470        2-3     12.138 /_ -121.8   0.97339
   -                 3       7.3694 /_   92.3    1.0236    12.470        3-1      13.07 /_  119.4    1.0481
M1142800 ........... 2       7.5149 /_ -151.6    1.0438    12.470
M1142799 ........... 2       7.5148 /_ -151.6    1.0438    12.470
M1047592 ........... 1       7.3673 /_  -33.5    1.0233    12.470        1-2     12.955 /_   -4.6    1.0389
   -                 2       7.4153 /_ -155.9      1.03    12.470        2-3     12.248 /_ -121.8   0.98221
   -                 3       7.3965 /_   92.5    1.0274    12.470        3-1     13.156 /_  119.4     1.055
P827512 ............ 3       7.3964 /_   92.5    1.0273    12.470
M1047339 ........... 1       7.2493 /_  -34.1    1.0069    12.470        1-2     12.646 /_   -3.7    1.0141
   -                 2       7.3709 /_ -153.9    1.0238    12.470        2-3     12.685 /_ -122.4    1.0173
   -                 3       7.4697 /_   88.6    1.0375    12.470        3-1     12.922 /_  116.8    1.0363
P895104 ............ 1       7.2493 /_  -34.1    1.0069    12.470
M1026915 ........... 1       7.2262 /_  -33.9    1.0037    12.470        1-2     12.783 /_   -4.9    1.0251
   -                 2       7.3548 /_ -156.4    1.0216    12.470        2-3     12.143 /_ -121.9   0.97378
   -                 3         7.38 /_   92.6    1.0251    12.470        3-1     13.044 /_  119.0    1.0461
M1026920 ........... 1       7.2225 /_  -33.9    1.0032    12.470        1-2     12.779 /_   -4.9    1.0247
   -                 2       7.3533 /_ -156.4    1.0214    12.470        2-3     12.141 /_ -121.9    0.9736
   -                 3       7.3792 /_   92.6     1.025    12.470        3-1      13.04 /_  119.0    1.0457
N1138596 ........... 1       7.3249 /_  -33.2    1.0174    12.470
L3254207 ........... 1       7.3247 /_  -33.2    1.0174    12.470
M1069464 ........... 1       7.3301 /_  -33.3    1.0181    12.470        1-2     12.857 /_   -4.8    1.0311
   -                 2       7.3059 /_ -156.2    1.0148    12.470        2-3     12.135 /_ -121.8   0.97316
   -                 3       7.3686 /_   92.3    1.0235    12.470        3-1     13.068 /_  119.4     1.048
P873787 ............ 2       7.3059 /_ -156.2    1.0148    12.470
N1144665 ........... 1       7.4053 /_  -33.3    1.0286    12.470        1-2     12.995 /_   -4.5    1.0421
   -                 2       7.4168 /_ -155.8    1.0302    12.470        2-3     12.267 /_ -121.7   0.98369
   -                 3       7.4025 /_   92.5    1.0282    12.470        3-1      13.18 /_  119.6    1.0569
M1047515 ........... 1       7.4007 /_  -33.3    1.0279    12.470        1-2     12.988 /_   -4.5    1.0416
   -                 2       7.4135 /_ -155.8    1.0297    12.470        2-3     12.262 /_ -121.7   0.98331
   -                 3       7.4005 /_   92.5    1.0279    12.470        3-1     13.174 /_  119.6    1.0565
N1137002 ........... 1        7.345 /_  -33.4    1.0202    12.470
M1047707 ........... 1       7.3448 /_  -33.4    1.0202    12.470
L2729406 ........... 3       7.2958 /_   89.5    1.0134    12.470
L2897768 ........... 3       7.2953 /_   89.5    1.0133    12.470
L3649301 ........... 1       7.3329 /_  -33.7    1.0185    12.470
L3649302 ........... 1       7.3324 /_  -33.7    1.0185    12.470
L2970842 ........... 2       7.4834 /_ -152.7    1.0394    12.470
M1089113 ........... 2       7.4805 /_ -152.7     1.039    12.470
M1047312 ........... 1       7.2087 /_  -34.2    1.0013    12.470        1-2     12.603 /_   -3.7    1.0107
   -                 2       7.3631 /_ -153.9    1.0227    12.470        2-3     12.669 /_ -122.4     1.016
   -                 3       7.4655 /_   88.7    1.0369    12.470        3-1     12.889 /_  116.7    1.0336
P893163 ............ 1       7.2086 /_  -34.2    1.0013    12.470
L2822871 ........... 1       7.2711 /_  -33.9    1.0099    12.470        1-2     12.842 /_   -4.8    1.0298
   -                 2       7.3839 /_ -156.2    1.0256    12.470        2-3     12.184 /_ -121.8   0.97709
   -                 3        7.385 /_   92.6    1.0258    12.470        3-1     13.084 /_  119.1    1.0492
M1026872 ........... 1       7.2677 /_  -33.9    1.0095    12.470        1-2     12.837 /_   -4.8    1.0295
   -                 2       7.3817 /_ -156.3    1.0253    12.470        2-3     12.181 /_ -121.8   0.97683
   -                 3       7.3846 /_   92.6    1.0257    12.470        3-1     13.081 /_  119.1     1.049
M1026312 ........... 2       7.3083 /_ -154.1    1.0151    12.470
L2973163 ........... 2       7.3073 /_ -154.1     1.015    12.470
L3728038 ........... 1       7.3304 /_  -33.4    1.0182    12.470
L3728039 ........... 1       7.3302 /_  -33.4    1.0181    12.470
M1069567 ........... 2       7.2869 /_ -155.0    1.0121    12.470
M1069582 ........... 2       7.2619 /_ -155.0    1.0087    12.470
N1140830 ........... 1       7.2874 /_  -33.4    1.0122    12.470
L3216351 ........... 1       7.2874 /_  -33.4    1.0122    12.470
L2952007 ........... 3        7.435 /_   89.8    1.0327    12.470
L2861158 ........... 3       7.4349 /_   89.8    1.0327    12.470
N1140827 ........... 1       7.2908 /_  -33.4    1.0127    12.470        1-2     12.869 /_   -4.4     1.032
   -                 2        7.398 /_ -155.8    1.0276    12.470        2-3     12.206 /_ -121.7   0.97881
   -                 3       7.3574 /_   92.6    1.0219    12.470        3-1     13.053 /_  119.5    1.0468
M1026726 ........... 1       7.2908 /_  -33.4    1.0127    12.470        1-2     12.869 /_   -4.4     1.032
   -                 2        7.398 /_ -155.8    1.0276    12.470        2-3     12.206 /_ -121.7   0.97881
   -                 3       7.3574 /_   92.6    1.0219    12.470        3-1     13.053 /_  119.5    1.0468
L2730106 ........... 1        7.091 /_  -30.6   0.98493    12.470        1-2     12.696 /_   -0.2    1.0182
   -                 2       7.4905 /_ -151.6    1.0404    12.470        2-3     12.847 /_ -119.0    1.0302
   -                 3       7.6901 /_   92.8    1.0681    12.470        3-1     13.014 /_  119.8    1.0436
N1142099 ........... 1        7.089 /_  -30.6   0.98465    12.470        1-2     12.695 /_   -0.2     1.018
   -                 2       7.4903 /_ -151.6    1.0404    12.470        2-3     12.846 /_ -119.0    1.0301
   -                 3       7.6911 /_   92.8    1.0683    12.470        3-1     13.013 /_  119.8    1.0436
M1026658 ........... 1       7.2861 /_  -33.4     1.012    12.470        1-2     12.864 /_   -4.4    1.0316
   -                 2       7.3993 /_ -155.8    1.0277    12.470        2-3     12.203 /_ -121.7   0.97863
   -                 3       7.3528 /_   92.6    1.0213    12.470        3-1     13.046 /_  119.4    1.0462
L3172805 ........... 1        7.286 /_  -33.4     1.012    12.470
P895112 ............ 1       7.2944 /_  -31.3    1.0132    12.470
L3048962 ........... 1       7.2943 /_  -31.3    1.0132    12.470
L2991914 ........... 1       7.3642 /_  -33.3    1.0229    12.470        1-2     12.937 /_   -4.5    1.0375
   -                 2       7.3921 /_ -155.8    1.0267    12.470        2-3     12.228 /_ -121.7   0.98062
   -                 3       7.3843 /_   92.5    1.0257    12.470        3-1      13.13 /_  119.6    1.0529
M1047503 ........... 1       7.3625 /_  -33.3    1.0226    12.470        1-2     12.936 /_   -4.5    1.0373
   -                 2       7.3922 /_ -155.8    1.0268    12.470        2-3     12.228 /_ -121.7   0.98057
   -                 3       7.3835 /_   92.5    1.0255    12.470        3-1     13.128 /_  119.6    1.0527
M1047751 ........... 1       7.2953 /_  -33.3    1.0133    12.470
L2973154 ........... 1       7.2953 /_  -33.3    1.0133    12.470
L3010565 ........... 3        7.432 /_   89.1    1.0323    12.470
L2897775 ........... 3       7.4319 /_   89.1    1.0323    12.470
M1125955 ........... 3       7.6403 /_   91.7    1.0612    12.470
M1125957 ........... 3       7.6403 /_   91.7    1.0612    12.470
M1069640 ........... 2       7.1888 /_ -155.2    0.9985    12.470
L2804269 ........... 2       7.1857 /_ -155.2   0.99807    12.470
M1026702 ........... 1       7.3037 /_  -33.4    1.0145    12.470        1-2     12.881 /_   -4.4     1.033
   -                 2       7.3975 /_ -155.8    1.0275    12.470        2-3      12.21 /_ -121.7   0.97919
   -                 3       7.3625 /_   92.6    1.0226    12.470        3-1     13.067 /_  119.5    1.0479
N1139551 ........... 1       7.2978 /_  -33.4    1.0136    12.470        1-2     12.876 /_   -4.4    1.0325
   -                 2       7.3981 /_ -155.8    1.0276    12.470        2-3     12.209 /_ -121.7   0.97907
   -                 3       7.3608 /_   92.6    1.0224    12.470        3-1     13.061 /_  119.5    1.0474
N1136355 ........... 2       7.3683 /_ -154.9    1.0234    12.470
L2783231 ........... 2       7.3556 /_ -154.9    1.0217    12.470
L2748143 ........... 1       7.2259 /_  -31.9    1.0037    12.470
L3251854 ........... 1       7.2258 /_  -31.9    1.0036    12.470
M1069610 ........... 2       7.2289 /_ -155.1    1.0041    12.470
M1069600 ........... 2       7.2289 /_ -155.1    1.0041    12.470
M1069424 ........... 1       7.3276 /_  -33.2    1.0178    12.470        1-2     12.843 /_   -4.8    1.0299
   -                 2       7.2837 /_ -156.2    1.0117    12.470        2-3     12.113 /_ -121.8   0.97136
   -                 3       7.3627 /_   92.2    1.0227    12.470        3-1     13.053 /_  119.4    1.0468
L2935549 ........... 1       7.3273 /_  -33.2    1.0177    12.470        1-2     12.841 /_   -4.8    1.0297
   -                 2       7.2806 /_ -156.3    1.0113    12.470        2-3      12.11 /_ -121.8   0.97111
   -                 3        7.362 /_   92.2    1.0226    12.470        3-1     13.051 /_  119.4    1.0466
P895089 ............ 3       7.5797 /_   92.6    1.0528    12.470
L3235242 ........... 3       7.5797 /_   92.6    1.0528    12.470
M1026795 ........... 1       7.3455 /_  -33.3    1.0203    12.470        1-2     12.919 /_   -4.5     1.036
   -                 2       7.3937 /_ -155.8     1.027    12.470        2-3     12.221 /_ -121.7   0.98006
   -                 3       7.3754 /_   92.5    1.0244    12.470        3-1     13.108 /_  119.5    1.0512
N1140522 ........... 3       7.3753 /_   92.5    1.0244    12.470
L3030199 ........... 1       7.3205 /_  -31.8    1.0168    12.470        1-2     12.837 /_   -1.2    1.0294
   -                 2        7.517 /_ -151.6    1.0441    12.470        2-3     12.937 /_ -120.6    1.0375
   -                 3        7.564 /_   90.3    1.0506    12.470        3-1     13.022 /_  118.7    1.0442
M1125934 ........... 1       7.3204 /_  -31.8    1.0168    12.470        1-2     12.836 /_   -1.3    1.0294
   -                 2       7.5168 /_ -151.6    1.0441    12.470        2-3     12.937 /_ -120.6    1.0374
   -                 3        7.563 /_   90.2    1.0505    12.470        3-1     13.021 /_  118.7    1.0442
M1069189 ........... 1       7.4032 /_  -33.5    1.0283    12.470        1-2     12.838 /_   -3.1    1.0295
   -                 2       7.4576 /_ -153.0    1.0358    12.470        2-3     12.769 /_ -122.0     1.024
   -                 3       7.4423 /_   89.1    1.0337    12.470        3-1     13.017 /_  117.7    1.0439
L2860487 ........... 3       7.4422 /_   89.1    1.0337    12.470
221-312488 ......... 1       7.1279 /_  -30.8   0.99004    12.470        1-2     12.713 /_   -0.4    1.0195
   -                 2       7.4858 /_ -151.6    1.0398    12.470        2-3     12.854 /_ -119.2    1.0308
   -                 3       7.6685 /_   92.3    1.0651    12.470        3-1     13.011 /_  119.7    1.0434
M1089183 ........... 1       7.1279 /_  -30.8   0.99004    12.470        1-2     12.713 /_   -0.4    1.0195
   -                 2       7.4858 /_ -151.6    1.0398    12.470        2-3     12.854 /_ -119.2    1.0308
   -                 3       7.6685 /_   92.3    1.0651    12.470        3-1     13.011 /_  119.7    1.0434
M1108464 ........... 2       7.4861 /_ -151.6    1.0398    12.470
L3102286 ........... 2       7.4859 /_ -151.6    1.0398    12.470
F739845 ............ 1       7.1913 /_  -34.2   0.99885    12.470        1-2     12.582 /_   -3.7     1.009
   -                 2       7.3549 /_ -154.0    1.0216    12.470        2-3     12.658 /_ -122.4    1.0151
   -                 3       7.4636 /_   88.7    1.0367    12.470        3-1     12.874 /_  116.7    1.0324
293471 ............. 1       7.1913 /_  -34.2   0.99885    12.470        1-2     12.582 /_   -3.7     1.009
   -                 2       7.3549 /_ -154.0    1.0216    12.470        2-3     12.658 /_ -122.4    1.0151
   -                 3       7.4636 /_   88.7    1.0367    12.470        3-1     12.874 /_  116.7    1.0324
P827499 ............ 1        7.327 /_  -33.2    1.0177    12.470
N1139254 ........... 1        7.327 /_  -33.2    1.0177    12.470
M1026657 ........... 1       7.2867 /_  -33.4    1.0121    12.470
M1026656 ........... 1       7.2865 /_  -33.4    1.0121    12.470
M1108299 ........... 2       7.5099 /_ -151.8    1.0431    12.470
M1108300 ........... 2       7.5099 /_ -151.8    1.0431    12.470
L3198355 ........... 2       7.5098 /_ -151.8    1.0431    12.470
L2805037 ........... 2       7.5098 /_ -151.8    1.0431    12.470
N1137994 ........... 3       7.3708 /_   92.3    1.0238    12.470
M1069484 ........... 3       7.3702 /_   92.3    1.0237    12.470
L2860504 ........... 1       7.2882 /_  -33.4    1.0123    12.470
L2860493 ........... 1       7.2879 /_  -33.4    1.0123    12.470
M1026783 ........... 1       7.3402 /_  -33.3    1.0195    12.470        1-2     12.914 /_   -4.4    1.0356
   -                 2       7.3942 /_ -155.8     1.027    12.470        2-3      12.22 /_ -121.7   0.97995
   -                 3       7.3737 /_   92.5    1.0242    12.470        3-1     13.103 /_  119.5    1.0508
M1026780 ........... 1       7.3393 /_  -33.3    1.0194    12.470        1-2     12.914 /_   -4.4    1.0356
   -                 2       7.3943 /_ -155.8     1.027    12.470        2-3      12.22 /_ -121.7   0.97993
   -                 3       7.3734 /_   92.5    1.0241    12.470        3-1     13.102 /_  119.5    1.0507
P895111 ............ 3       7.6192 /_   91.2    1.0583    12.470
L2895496 ........... 3        7.619 /_   91.2    1.0583    12.470
N1140819 ........... 1       7.2932 /_  -33.4     1.013    12.470        1-2     12.871 /_   -4.4    1.0322
   -                 2       7.3981 /_ -155.8    1.0276    12.470        2-3     12.207 /_ -121.7   0.97891
   -                 3       7.3588 /_   92.6    1.0221    12.470        3-1     13.056 /_  119.5     1.047
M1026700 ........... 1       7.2925 /_  -33.4    1.0129    12.470        1-2     12.871 /_   -4.4    1.0321
   -                 2       7.3981 /_ -155.8    1.0276    12.470        2-3     12.207 /_ -121.7   0.97889
   -                 3       7.3584 /_   92.6    1.0221    12.470        3-1     13.055 /_  119.5    1.0469
M1089173 ........... 3       7.3048 /_   89.5    1.0146    12.470
L2935551 ........... 3       7.3028 /_   89.5    1.0143    12.470
M1026344 ........... 1       7.1458 /_  -34.2   0.99254    12.470
M1026364 ........... 1       7.1457 /_  -34.2   0.99252    12.470
L2879070 ........... 1        7.354 /_  -33.6    1.0215    12.470        1-2      12.94 /_   -4.6    1.0377
   -                 2       7.4128 /_ -156.0    1.0296    12.470        2-3     12.241 /_ -121.8   0.98162
   -                 3       7.3945 /_   92.5    1.0271    12.470        3-1     13.146 /_  119.4    1.0542
L3216345 ........... 1       7.3451 /_  -33.6    1.0202    12.470        1-2      12.93 /_   -4.7    1.0369
   -                 2       7.4113 /_ -156.0    1.0294    12.470        2-3     12.236 /_ -121.8   0.98124
   -                 3       7.3934 /_   92.5    1.0269    12.470        3-1      13.14 /_  119.4    1.0537
M1069428 ........... 1        7.328 /_  -33.2    1.0178    12.470        1-2     12.844 /_   -4.8      1.03
   -                 2       7.2864 /_ -156.2    1.0121    12.470        2-3     12.116 /_ -121.8   0.97158
   -                 3       7.3634 /_   92.2    1.0228    12.470        3-1     13.055 /_  119.4    1.0469
N1139257 ........... 2       7.2864 /_ -156.2    1.0121    12.470
L2991919 ........... 1       7.1408 /_  -34.2   0.99184    12.470
M1026361 ........... 1       7.1375 /_  -34.2   0.99138    12.470
N1147857 ........... 1       7.2067 /_  -33.9     1.001    12.470
M1009742 ........... 1       7.2059 /_  -33.9    1.0009    12.470
Q14412 ............. 1       7.2387 /_  -34.2    1.0054    12.470        1-2     12.635 /_   -3.7    1.0132
   -                 2       7.3689 /_ -153.9    1.0235    12.470        2-3     12.681 /_ -122.4    1.0169
   -                 3       7.4686 /_   88.6    1.0374    12.470        3-1     12.914 /_  116.8    1.0356
M1047325 ........... 1       7.2357 /_  -34.2     1.005    12.470        1-2     12.632 /_   -3.7     1.013
   -                 2       7.3683 /_ -153.9    1.0234    12.470        2-3      12.68 /_ -122.4    1.0168
   -                 3       7.4683 /_   88.6    1.0373    12.470        3-1     12.911 /_  116.7    1.0354
N1139263 ........... 1       7.3304 /_  -33.3    1.0182    12.470
L3048227 ........... 1       7.3304 /_  -33.3    1.0182    12.470
P827506 ............ 1       7.3304 /_  -33.3    1.0182    12.470
M1069469 ........... 1       7.3304 /_  -33.3    1.0182    12.470
M1027019 ........... 2       7.2865 /_ -156.6    1.0121    12.470
L2785522 ........... 2       7.2865 /_ -156.6    1.0121    12.470
L3216338 ........... 2       7.2972 /_ -156.5    1.0136    12.470
L2973146 ........... 2       7.2972 /_ -156.5    1.0136    12.470
M3037452 ........... 1        7.124 /_  -34.3    0.9895    12.470
L2973164 ........... 1       7.1239 /_  -34.3   0.98949    12.470
L3120376 ........... 1       7.2778 /_  -33.8    1.0109    12.470
M1026925 ........... 1        7.277 /_  -33.8    1.0108    12.470
M1047612 ........... 3       7.4054 /_   92.5    1.0286    12.470
P828360 ............ 3       7.4054 /_   92.5    1.0286    12.470
M1089195 ........... 3       7.5795 /_   92.6    1.0528    12.470
L3141393 ........... 3       7.5794 /_   92.6    1.0528    12.470
M1026946 ........... 2       7.3214 /_ -156.5    1.0169    12.470
M1026940 ........... 2       7.3209 /_ -156.5    1.0168    12.470
M1047471 ........... 2        7.205 /_ -156.5    1.0008    12.470
L3216349 ........... 2       7.2049 /_ -156.5    1.0007    12.470
M1047401 ........... 1       7.2645 /_  -33.5     1.009    12.470
L2748132 ........... 1       7.2645 /_  -33.5     1.009    12.470
L3122820 ........... 1       7.2764 /_  -33.5    1.0107    12.470
L3141398 ........... 1       7.2763 /_  -33.5    1.0107    12.470
M1108360 ........... 3       7.4236 /_   89.7    1.0311    12.470
L3048968 ........... 3       7.4235 /_   89.7    1.0311    12.470
L2801950 ........... 3       7.4254 /_   89.1    1.0314    12.470
M1069224 ........... 3       7.4252 /_   89.1    1.0313    12.470
L2766746 ........... 3       7.3103 /_   92.5    1.0154    12.470
M1027073 ........... 3       7.3074 /_   92.5     1.015    12.470
M1142873 ........... 3       7.6189 /_   91.2    1.0582    12.470
M1069181 ........... 1         7.36 /_  -33.6    1.0223    12.470
L2973151 ........... 1       7.3596 /_  -33.6    1.0222    12.470
L3179682 ........... 3       7.5306 /_   89.9     1.046    12.470
L2786274 ........... 3       7.5306 /_   89.9     1.046    12.470
L3066816 ........... 1       7.2869 /_  -33.4    1.0121    12.470
M1026667 ........... 1       7.2868 /_  -33.4    1.0121    12.470
M1108529 ........... 1       7.4475 /_  -30.9    1.0344    12.470        1-2     13.041 /_   -1.4    1.0458
   -                 2        7.509 /_ -152.2     1.043    12.470        2-3      12.67 /_ -119.6     1.016
   -                 3        7.524 /_   92.9    1.0451    12.470        3-1     13.204 /_  120.8    1.0589
M1108532 ........... 1       7.4449 /_  -30.9    1.0341    12.470        1-2     13.039 /_   -1.4    1.0456
   -                 2       7.5075 /_ -152.3    1.0428    12.470        2-3     12.667 /_ -119.7    1.0158
   -                 3       7.5249 /_   92.9    1.0452    12.470        3-1     13.203 /_  120.8    1.0588
L2766723 ........... 1       7.2878 /_  -33.4    1.0123    12.470
L3122822 ........... 1       7.2877 /_  -33.4    1.0122    12.470
L2673312 ........... 1        7.116 /_  -34.0   0.98839    12.470
L3235247 ........... 1       7.1159 /_  -34.0   0.98839    12.470
M1166391 ........... 3       7.4523 /_   89.8    1.0351    12.470
L3254873 ........... 3       7.4483 /_   89.8    1.0345    12.470
L2861157 ........... 3       7.4904 /_   89.9    1.0404    12.470
P901951 ............ 3       7.4868 /_   89.8    1.0399    12.470
M1047346 ........... 1       7.2648 /_  -34.1    1.0091    12.470        1-2     12.662 /_   -3.8    1.0154
   -                 2       7.3735 /_ -153.9    1.0242    12.470        2-3     12.691 /_ -122.4    1.0177
   -                 3       7.4713 /_   88.6    1.0377    12.470        3-1     12.935 /_  116.8    1.0373
M1047345 ........... 1       7.2608 /_  -34.1    1.0085    12.470        1-2     12.658 /_   -3.8    1.0151
   -                 2       7.3729 /_ -153.9    1.0241    12.470        2-3     12.689 /_ -122.4    1.0176
   -                 3       7.4709 /_   88.6    1.0377    12.470        3-1     12.932 /_  116.8     1.037
L2989596 ........... 2       7.3193 /_ -155.0    1.0166    12.470
L2822873 ........... 2       7.3193 /_ -155.0    1.0166    12.470
M1108328 ........... 3       7.5016 /_   89.8     1.042    12.470
L2875754 ........... 3       7.5016 /_   89.8     1.042    12.470
L2786204 ........... 3       7.5441 /_   89.9    1.0479    12.470
M1209819 ........... 3       7.5405 /_   89.9    1.0474    12.470
P901972 ............ 1       7.2057 /_  -33.9    1.0008    12.470
M1009726 ........... 1       7.2043 /_  -33.9    1.0007    12.470
M1047702 ........... 1        7.345 /_  -33.4    1.0202    12.470
N1137001 ........... 1       7.3449 /_  -33.4    1.0202    12.470
L2767340 ........... 1       7.1589 /_  -30.8   0.99435    12.470        1-2     12.745 /_   -0.5     1.022
   -                 2       7.4993 /_ -151.6    1.0416    12.470        2-3     12.876 /_ -119.4    1.0326
   -                 3       7.6622 /_   92.1    1.0643    12.470        3-1     13.025 /_  119.6    1.0445
M3037449 ........... 1       7.1589 /_  -30.8   0.99435    12.470        1-2     12.745 /_   -0.5     1.022
   -                 2       7.4993 /_ -151.6    1.0416    12.470        2-3     12.876 /_ -119.4    1.0326
   -                 3       7.6622 /_   92.1    1.0643    12.470        3-1     13.025 /_  119.6    1.0445
M1047457 ........... 2       7.2084 /_ -156.4    1.0012    12.470
L2710546 ........... 2        7.208 /_ -156.4    1.0012    12.470
L2674027 ........... 1       7.0286 /_  -30.7   0.97626    12.470        1-2     12.641 /_   -0.4    1.0137
   -                 2       7.4727 /_ -152.0    1.0379    12.470        2-3     12.809 /_ -119.0    1.0272
   -                 3       7.7112 /_   92.9    1.0711    12.470        3-1     12.999 /_  119.7    1.0424
L2692633 ........... 1        7.021 /_  -30.8   0.97519    12.470        1-2     12.633 /_   -0.5    1.0131
   -                 2       7.4691 /_ -152.1    1.0374    12.470        2-3     12.804 /_ -119.0    1.0268
   -                 3       7.7135 /_   92.9    1.0714    12.470        3-1     12.996 /_  119.6    1.0422
N1142108 ........... 1       7.3179 /_  -32.1    1.0164    12.470
L2674051 ........... 1       7.3179 /_  -32.1    1.0164    12.470
M1069135 ........... 1       7.2904 /_  -34.1    1.0126    12.470        1-2     12.687 /_   -3.8    1.0174
   -                 2       7.3767 /_ -153.8    1.0246    12.470        2-3     12.699 /_ -122.4    1.0183
   -                 3        7.473 /_   88.6     1.038    12.470        3-1     12.955 /_  116.9    1.0389
R18242 ............. 1       7.2852 /_  -34.1    1.0119    12.470        1-2     12.683 /_   -3.8    1.0171
   -                 2        7.377 /_ -153.9    1.0247    12.470        2-3     12.699 /_ -122.4    1.0183
   -                 3       7.4737 /_   88.6    1.0381    12.470        3-1     12.952 /_  116.8    1.0386
M1047534 ........... 1       7.4887 /_  -33.1    1.0402    12.470        1-2     13.108 /_   -4.4    1.0511
   -                 2       7.4623 /_ -155.6    1.0365    12.470        2-3     12.341 /_ -121.6   0.98964
   -                 3       7.4291 /_   92.5    1.0319    12.470        3-1     13.266 /_  119.8    1.0638
N1136663 ........... 1       7.4652 /_  -33.2    1.0369    12.470        1-2     13.078 /_   -4.4    1.0487
   -                 2       7.4516 /_ -155.7     1.035    12.470        2-3     12.322 /_ -121.7    0.9881
   -                 3       7.4231 /_   92.5    1.0311    12.470        3-1     13.245 /_  119.7    1.0621
M1108508 ........... 3       7.5387 /_   92.7    1.0471    12.470
L3097861 ........... 3       7.5368 /_   92.7    1.0468    12.470
M1069560 ........... 2       7.3004 /_ -155.0     1.014    12.470
L2973153 ........... 1       7.3605 /_  -33.4    1.0224    12.470        1-2     12.934 /_   -4.6    1.0372
   -                 2       7.3881 /_ -155.9    1.0262    12.470        2-3     12.233 /_ -121.7   0.98101
   -                 3       7.4069 /_   92.5    1.0288    12.470        3-1     13.152 /_  119.5    1.0547
N1136998 ........... 1       7.3598 /_  -33.4    1.0223    12.470        1-2     12.933 /_   -4.6    1.0371
   -                 2       7.3873 /_ -155.9    1.0261    12.470        2-3     12.233 /_ -121.7   0.98095
   -                 3        7.407 /_   92.5    1.0288    12.470        3-1     13.151 /_  119.5    1.0546
L2898515 ........... 3        7.591 /_   90.4    1.0544    12.470
M1166387 ........... 3        7.591 /_   90.4    1.0544    12.470
M1047442 ........... 2       7.2215 /_ -156.4     1.003    12.470
L3235250 ........... 2       7.2215 /_ -156.4     1.003    12.470
M1142871 ........... 1       7.2743 /_  -31.2    1.0104    12.470        1-2      12.83 /_   -0.8    1.0288
   -                 2       7.5182 /_ -151.5    1.0443    12.470        2-3     12.931 /_ -119.9     1.037
   -                 3       7.6179 /_   91.1    1.0581    12.470        3-1     13.048 /_  119.2    1.0463
M1142874 ........... 1       7.2708 /_  -31.2    1.0099    12.470        1-2     12.827 /_   -0.8    1.0286
   -                 2       7.5176 /_ -151.5    1.0442    12.470        2-3      12.93 /_ -119.9    1.0369
   -                 3       7.6192 /_   91.2    1.0583    12.470        3-1     13.047 /_  119.3    1.0463
L2955081 ........... 1       7.3178 /_  -32.1    1.0164    12.470        1-2     12.812 /_   -1.5    1.0275
   -                 2       7.5097 /_ -151.7    1.0431    12.470        2-3     12.923 /_ -120.8    1.0363
   -                 3        7.534 /_   89.9    1.0465    12.470        3-1     12.992 /_  118.4    1.0419
M1108315 ........... 1       7.3176 /_  -32.2    1.0164    12.470        1-2      12.81 /_   -1.5    1.0272
   -                 2       7.5089 /_ -151.7     1.043    12.470        2-3     12.922 /_ -120.9    1.0362
   -                 3       7.5306 /_   89.9     1.046    12.470        3-1     12.989 /_  118.4    1.0416
L2973162 ........... 1       7.1464 /_  -34.2   0.99262    12.470        1-2     12.526 /_   -3.7    1.0045
   -                 2       7.3326 /_ -154.0    1.0185    12.470        2-3     12.632 /_ -122.3     1.013
   -                 3       7.4652 /_   88.8    1.0369    12.470        3-1     12.841 /_  116.6    1.0297
M1026333 ........... 1       7.1461 /_  -34.2   0.99258    12.470        1-2     12.525 /_   -3.7    1.0044
   -                 2        7.331 /_ -154.0    1.0183    12.470        2-3     12.631 /_ -122.3    1.0129
   -                 3       7.4655 /_   88.8    1.0369    12.470        3-1     12.841 /_  116.6    1.0297
M1009832 ........... 2       7.3029 /_ -156.5    1.0144    12.470
L2860479 ........... 2       7.3029 /_ -156.5    1.0144    12.470
M1026854 ........... 1       7.3007 /_  -33.8     1.014    12.470        1-2      12.88 /_   -4.7    1.0329
   -                 2       7.4002 /_ -156.1    1.0279    12.470        2-3      12.21 /_ -121.8   0.97912
   -                 3       7.3881 /_   92.6    1.0262    12.470        3-1     13.108 /_  119.2    1.0511
P901894 ............ 1       7.3004 /_  -33.8     1.014    12.470
M1026485 ........... 2       7.2898 /_ -154.0    1.0125    12.470
M1026492 ........... 2       7.2898 /_ -154.0    1.0125    12.470
D6413567-3_INT ..... 1       7.3848 /_  -33.5    1.0257    12.470        1-2     12.816 /_   -3.2    1.0278
   -                 2       7.4488 /_ -153.1    1.0346    12.470        2-3      12.76 /_ -122.0    1.0233
   -                 3       7.4454 /_   89.0    1.0341    12.470        3-1     13.006 /_  117.6    1.0429
E182724 ............ 1       7.3847 /_  -33.6    1.0257    12.470        1-2     12.816 /_   -3.2    1.0278
   -                 2       7.4487 /_ -153.1    1.0346    12.470        2-3      12.76 /_ -122.0    1.0233
   -                 3       7.4454 /_   89.0    1.0341    12.470        3-1     13.006 /_  117.6    1.0429
N1139541 ........... 1       7.3867 /_  -33.5     1.026    12.470        1-2     12.819 /_   -3.2     1.028
   -                 2       7.4497 /_ -153.1    1.0347    12.470        2-3     12.761 /_ -122.0    1.0234
   -                 3       7.4451 /_   89.0    1.0341    12.470        3-1     13.007 /_  117.6     1.043
M4122658 ........... 1       7.1065 /_  -30.6   0.98707    12.470        1-2     12.707 /_   -0.3     1.019
   -                 2       7.4926 /_ -151.6    1.0407    12.470        2-3     12.853 /_ -119.1    1.0307
   -                 3       7.6836 /_   92.6    1.0672    12.470        3-1     13.016 /_  119.8    1.0438
L2933135 ........... 1       7.1063 /_  -30.6   0.98705    12.470        1-2     12.707 /_   -0.3     1.019
   -                 2       7.4926 /_ -151.6    1.0407    12.470        2-3     12.853 /_ -119.1    1.0307
   -                 3       7.6836 /_   92.6    1.0672    12.470        3-1     13.016 /_  119.8    1.0438
L2729414 ........... 1       7.3037 /_  -33.4    1.0145    12.470        1-2     12.881 /_   -4.4     1.033
   -                 2       7.3975 /_ -155.8    1.0275    12.470        2-3      12.21 /_ -121.7   0.97918
   -                 3       7.3625 /_   92.6    1.0226    12.470        3-1     13.067 /_  119.5    1.0479
L2729430 ........... 2       7.3258 /_ -156.5    1.0175    12.470
L2766742 ........... 2       7.3215 /_ -156.5    1.0169    12.470
M1026972 ........... 2       7.2531 /_ -156.2    1.0074    12.470
L2860483 ........... 2        7.253 /_ -156.2    1.0074    12.470
L2860490 ........... 1       7.2749 /_  -34.1    1.0105    12.470        1-2     12.672 /_   -3.8    1.0162
   -                 2       7.3753 /_ -153.9    1.0244    12.470        2-3     12.695 /_ -122.4     1.018
   -                 3       7.4725 /_   88.6    1.0379    12.470        3-1     12.943 /_  116.8     1.038
L3104134 ........... 1        7.269 /_  -34.1    1.0096    12.470        1-2     12.666 /_   -3.8    1.0157
   -                 2       7.3742 /_ -153.9    1.0243    12.470        2-3     12.692 /_ -122.4    1.0178
   -                 3       7.4717 /_   88.6    1.0378    12.470        3-1     12.938 /_  116.8    1.0376
M1089144 ........... 1       7.1445 /_  -32.9   0.99235    12.470
P827522 ............ 1       7.1445 /_  -32.9   0.99235    12.470
M1089118 ........... 1       7.4438 /_  -33.3    1.0339    12.470        1-2     12.893 /_   -2.9    1.0339
   -                 2       7.4819 /_ -152.8    1.0392    12.470        2-3     12.807 /_ -121.8     1.027
   -                 3       7.4565 /_   89.2    1.0357    12.470        3-1     13.062 /_  117.9    1.0475
L3048208 ........... 1       7.4438 /_  -33.3    1.0339    12.470
M1108505 ........... 1       7.0494 /_  -30.6   0.97915    12.470        1-2     12.662 /_   -0.3    1.0154
   -                 2       7.4823 /_ -151.8    1.0393    12.470        2-3     12.825 /_ -118.9    1.0285
   -                 3       7.7053 /_   93.0    1.0702    12.470        3-1     13.006 /_  119.8     1.043
L2955047 ........... 1       7.0428 /_  -30.7   0.97823    12.470        1-2     12.656 /_   -0.3    1.0149
   -                 2       7.4796 /_ -151.9    1.0389    12.470        2-3      12.82 /_ -118.9    1.0281
   -                 3        7.707 /_   92.9    1.0705    12.470        3-1     13.003 /_  119.8    1.0428
M1089148 ........... 1       7.1437 /_  -32.9   0.99225    12.470
L2766721 ........... 1       7.1437 /_  -32.9   0.99224    12.470
M1026745 ........... 2       7.2031 /_ -156.5    1.0005    12.470
L3029183 ........... 2       7.2029 /_ -156.5    1.0005    12.470
L2710512 ........... 2       7.2557 /_ -156.2    1.0078    12.470
M1047828 ........... 2       7.2541 /_ -156.2    1.0076    12.470
M1047342 ........... 1       7.2608 /_  -34.1    1.0085    12.470
L3197645 ........... 1       7.2607 /_  -34.1    1.0085    12.470
M1069192 ........... 1       7.3669 /_  -33.6    1.0232    12.470
L3235253 ........... 1       7.3668 /_  -33.6    1.0232    12.470
L3214071 ........... 1       7.2196 /_  -31.0    1.0028    12.470        1-2     12.789 /_   -0.6    1.0256
   -                 2       7.5088 /_ -151.5     1.043    12.470        2-3     12.905 /_ -119.7    1.0349
   -                 3       7.6384 /_   91.6     1.061    12.470        3-1     13.036 /_  119.4    1.0454
M1125952 ........... 1       7.2146 /_  -31.0    1.0021    12.470        1-2     12.785 /_   -0.6    1.0253
   -                 2        7.508 /_ -151.6    1.0428    12.470        2-3     12.902 /_ -119.6    1.0347
   -                 3       7.6403 /_   91.7    1.0612    12.470        3-1     13.035 /_  119.4    1.0453
M1027101 ........... 2       7.1987 /_ -156.3   0.99988    12.470
L2860480 ........... 2       7.1985 /_ -156.3   0.99986    12.470
L2710517 ........... 1       7.2773 /_  -33.5    1.0108    12.470
M1026646 ........... 1       7.2766 /_  -33.5    1.0107    12.470
M1069662 ........... 2       7.1816 /_ -155.2    0.9975    12.470
L2935547 ........... 2       7.1816 /_ -155.2    0.9975    12.470
M1026931 ........... 1       7.2749 /_  -33.8    1.0105    12.470
L3216336 ........... 1       7.2747 /_  -33.8    1.0104    12.470
L3142049 ........... 1       7.0807 /_  -30.5   0.98349    12.470        1-2      12.69 /_   -0.2    1.0176
   -                 2       7.4895 /_ -151.6    1.0403    12.470        2-3     12.842 /_ -118.9    1.0299
   -                 3       7.6952 /_   92.9    1.0688    12.470        3-1     13.013 /_  119.9    1.0435
M1108493 ........... 1       7.0731 /_  -30.5   0.98243    12.470        1-2     12.685 /_   -0.2    1.0172
   -                 2       7.4887 /_ -151.7    1.0402    12.470        2-3     12.839 /_ -118.9    1.0296
   -                 3       7.6989 /_   92.9    1.0694    12.470        3-1     13.012 /_  119.9    1.0435
M1069169 ........... 1        7.373 /_  -33.6    1.0241    12.470        1-2     12.802 /_   -3.2    1.0267
   -                 2       7.4431 /_ -153.2    1.0338    12.470        2-3     12.755 /_ -122.1    1.0228
   -                 3       7.4475 /_   89.0    1.0344    12.470        3-1     12.998 /_  117.5    1.0424
L3010556 ........... 1       7.3667 /_  -33.6    1.0232    12.470        1-2     12.794 /_   -3.3    1.0259
   -                 2        7.438 /_ -153.2    1.0331    12.470        2-3     12.751 /_ -122.1    1.0225
   -                 3       7.4493 /_   88.9    1.0347    12.470        3-1     12.995 /_  117.5    1.0421
L2991933 ........... 3       7.3806 /_   92.6    1.0251    12.470
L3122837 ........... 3       7.3804 /_   92.6    1.0251    12.470
L2691936 ........... 1       7.2744 /_  -33.8    1.0104    12.470
L2897772 ........... 1       7.2031 /_  -34.2    1.0005    12.470
L3101814 ........... 1       7.2031 /_  -34.2    1.0005    12.470
L2766732 ........... 2       7.2901 /_ -154.0    1.0126    12.470
L2989564 ........... 2       7.1838 /_ -155.2   0.99782    12.470
M1126016 ........... 1       7.0343 /_  -30.6   0.97705    12.470
L3120534 ........... 1       7.0342 /_  -30.7   0.97703    12.470
M1026330 ........... 1       7.1455 /_  -34.2   0.99249    12.470        1-2     12.523 /_   -3.7    1.0042
   -                 2        7.328 /_ -154.0    1.0178    12.470        2-3     12.629 /_ -122.3    1.0127
   -                 3       7.4662 /_   88.8     1.037    12.470        3-1      12.84 /_  116.6    1.0297
L2766726 ........... 2        7.328 /_ -154.0    1.0178    12.470
P901912 ............ 2       7.3812 /_ -155.9    1.0252    12.470
L3195365 ........... 2       7.3812 /_ -155.9    1.0252    12.470
M1108381 ........... 1        7.129 /_  -30.8   0.99019    12.470        1-2     12.716 /_   -0.4    1.0197
   -                 2       7.4875 /_ -151.6      1.04    12.470        2-3     12.856 /_ -119.2    1.0309
   -                 3       7.6692 /_   92.3    1.0652    12.470        3-1     13.013 /_  119.7    1.0435
L3254237 ........... 1       7.1286 /_  -30.8   0.99015    12.470        1-2     12.715 /_   -0.4    1.0197
   -                 2       7.4871 /_ -151.6    1.0399    12.470        2-3     12.855 /_ -119.2    1.0309
   -                 3        7.669 /_   92.3    1.0652    12.470        3-1     13.012 /_  119.7    1.0435
L2804262 ........... 1        7.297 /_  -33.8    1.0135    12.470
L2841639 ........... 1       7.2937 /_  -33.8    1.0131    12.470
N1230123 ........... 2       7.4898 /_ -151.6    1.0403    12.470
L2708744 ........... 2       7.4892 /_ -151.6    1.0402    12.470
M1069519 ........... 1       7.2284 /_  -32.0     1.004    12.470        1-2     12.831 /_   -3.0     1.029
   -                 2       7.3864 /_ -154.8     1.026    12.470        2-3     12.493 /_ -120.5    1.0019
   -                 3       7.6158 /_   92.5    1.0578    12.470        3-1     13.135 /_  119.5    1.0533
P901927 ............ 2       7.3863 /_ -154.8    1.0259    12.470
L2897790 ........... 3       7.6207 /_   92.4    1.0585    12.470
L2935566 ........... 3       7.6207 /_   92.4    1.0585    12.470
L3216337 ........... 1       7.2749 /_  -33.8    1.0105    12.470
P901931 ............ 3        7.622 /_   92.4    1.0587    12.470
M1069548 ........... 3       7.6219 /_   92.4    1.0587    12.470
M1010013 ........... 1       7.0263 /_  -34.1   0.97593    12.470
L3120503 ........... 1       7.0262 /_  -34.1   0.97592    12.470
M1089145 ........... 1       7.1429 /_  -32.9   0.99213    12.470        1-2     12.578 /_   -2.0    1.0086
   -                 2       7.4189 /_ -152.3    1.0305    12.470        2-3     12.765 /_ -121.3    1.0236
   -                 3       7.4607 /_   89.5    1.0363    12.470        3-1     12.797 /_  117.6    1.0262
L3215385 ........... 1       7.1429 /_  -32.9   0.99213    12.470        1-2     12.578 /_   -2.0    1.0086
   -                 2       7.4189 /_ -152.3    1.0305    12.470        2-3     12.765 /_ -121.3    1.0236
   -                 3       7.4607 /_   89.5    1.0363    12.470        3-1     12.797 /_  117.6    1.0262
M1026852 ........... 1       7.2921 /_  -33.8    1.0129    12.470        1-2     12.869 /_   -4.8     1.032
   -                 2       7.3958 /_ -156.2    1.0273    12.470        2-3     12.203 /_ -121.8   0.97855
   -                 3       7.3871 /_   92.6    1.0261    12.470        3-1     13.101 /_  119.2    1.0506
M1069420 ........... 1        7.327 /_  -33.2    1.0177    12.470        1-2     12.838 /_   -4.8    1.0295
   -                 2       7.2772 /_ -156.3    1.0108    12.470        2-3     12.106 /_ -121.8   0.97084
   -                 3       7.3613 /_   92.1    1.0225    12.470        3-1     13.049 /_  119.4    1.0464
L3157708 ........... 3        7.392 /_   92.5    1.0267    12.470
N1137991 ........... 3        7.392 /_   92.5    1.0267    12.470
M1108413 ........... 1         7.13 /_  -30.8   0.99033    12.470
M1108460 ........... 1       7.1292 /_  -30.8   0.99023    12.470
P827532 ............ 1       7.2357 /_  -34.2     1.005    12.470
M1047326 ........... 1       7.2356 /_  -34.2     1.005    12.470
E182732 ............ 1        7.323 /_  -33.4    1.0171    12.470        1-2     12.899 /_   -4.4    1.0344
   -                 2       7.3958 /_ -155.8    1.0273    12.470        2-3     12.215 /_ -121.7   0.97959
   -                 3       7.3684 /_   92.6    1.0235    12.470        3-1     13.086 /_  119.5    1.0494
M1026760 ........... 1       7.3225 /_  -33.4    1.0171    12.470        1-2     12.898 /_   -4.4    1.0343
   -                 2       7.3958 /_ -155.8    1.0273    12.470        2-3     12.215 /_ -121.7   0.97958
   -                 3       7.3683 /_   92.6    1.0234    12.470        3-1     13.086 /_  119.5    1.0494
L3048205 ........... 3       7.4026 /_   89.7    1.0282    12.470
M1108361 ........... 3       7.3803 /_   89.6    1.0251    12.470
M3036169 ........... 1       7.2787 /_  -33.5     1.011    12.470
L2673317 ........... 1       7.2787 /_  -33.5     1.011    12.470
L3178981 ........... 2       7.3682 /_ -153.9    1.0234    12.470
M1047368 ........... 2       7.3525 /_ -153.9    1.0212    12.470
N1136354 ........... 1       7.2271 /_  -31.9    1.0038    12.470        1-2      12.83 /_   -3.0    1.0289
   -                 2       7.3794 /_ -154.8     1.025    12.470        2-3     12.488 /_ -120.6    1.0014
   -                 3       7.6198 /_   92.5    1.0584    12.470        3-1     13.134 /_  119.5    1.0533
L2879794 ........... 1       7.3195 /_  -31.7    1.0167    12.470
M1142811 ........... 1       7.3194 /_  -31.7    1.0166    12.470
M1069565 ........... 2       7.3194 /_ -155.0    1.0166    12.470
L2785536 ........... 2       7.3193 /_ -155.0    1.0166    12.470
L3104114 ........... 2       7.3126 /_ -156.5    1.0157    12.470
M1009824 ........... 2       7.3107 /_ -156.5    1.0154    12.470
L2745848 ........... 1       7.3325 /_  -33.3    1.0185    12.470        1-2     12.869 /_   -4.7     1.032
   -                 2        7.324 /_ -156.1    1.0173    12.470        2-3     12.153 /_ -121.8   0.97457
   -                 3       7.3709 /_   92.3    1.0238    12.470        3-1     13.078 /_  119.4    1.0487
L2673308 ........... 1       7.3321 /_  -33.3    1.0184    12.470        1-2     12.867 /_   -4.7    1.0318
   -                 2        7.321 /_ -156.1    1.0169    12.470        2-3      12.15 /_ -121.8   0.97434
   -                 3       7.3706 /_   92.3    1.0238    12.470        3-1     13.076 /_  119.4    1.0486
L2991939 ........... 1       7.3313 /_  -33.3    1.0183    12.470        1-2     12.863 /_   -4.7    1.0315
   -                 2       7.3151 /_ -156.1     1.016    12.470        2-3     12.144 /_ -121.8   0.97389
   -                 3       7.3702 /_   92.3    1.0237    12.470        3-1     13.073 /_  119.4    1.0484
L2916606 ........... 3       7.4348 /_   89.7    1.0327    12.470
L2822864 ........... 3       7.4348 /_   89.7    1.0327    12.470
M1142851 ........... 1       7.3139 /_  -31.3    1.0159    12.470        1-2     12.859 /_   -0.9    1.0312
   -                 2       7.5253 /_ -151.5    1.0452    12.470        2-3     12.951 /_ -120.1    1.0386
   -                 3       7.6037 /_   90.8    1.0561    12.470        3-1     13.056 /_  119.1     1.047
196-31070 .......... 1       7.3126 /_  -31.3    1.0157    12.470        1-2     12.858 /_   -0.9    1.0311
   -                 2       7.5251 /_ -151.5    1.0452    12.470        2-3     12.951 /_ -120.1    1.0385
   -                 3       7.6041 /_   90.8    1.0562    12.470        3-1     13.056 /_  119.1     1.047
M1209822 ........... 3       7.5074 /_   89.9    1.0428    12.470
M1209823 ........... 3       7.5046 /_   89.9    1.0424    12.470
M1069550 ........... 2       7.3213 /_ -154.9    1.0169    12.470
M1069551 ........... 2       7.3206 /_ -154.9    1.0168    12.470
L3141397 ........... 2        7.253 /_ -156.2    1.0074    12.470
L3649299 ........... 1       7.3343 /_  -33.6    1.0187    12.470
M3772794 ........... 1       7.3342 /_  -33.6    1.0187    12.470
P895106 ............ 2       7.5015 /_ -151.6    1.0419    12.470
L3048887 ........... 2       7.5014 /_ -151.6    1.0419    12.470
M1047824 ........... 2       7.2127 /_ -156.2    1.0018    12.470
M1047834 ........... 2       7.1995 /_ -156.3   0.99999    12.470
M1069350 ........... 1       7.3276 /_  -33.2    1.0178    12.470        1-2     12.823 /_   -4.9    1.0283
   -                 2       7.2514 /_ -156.3    1.0072    12.470        2-3      12.08 /_ -121.9    0.9687
   -                 3       7.3485 /_   92.0    1.0207    12.470        3-1     13.028 /_  119.4    1.0448
N1144668 ........... 1       7.3278 /_  -33.2    1.0178    12.470        1-2     12.823 /_   -4.9    1.0283
   -                 2       7.2513 /_ -156.3    1.0072    12.470        2-3     12.079 /_ -121.9   0.96868
   -                 3        7.348 /_   92.0    1.0206    12.470        3-1     13.028 /_  119.4    1.0447
L2879072 ........... 2       7.2288 /_ -156.4    1.0041    12.470
M1047441 ........... 2       7.2226 /_ -156.4    1.0032    12.470
M1108274 ........... 2       7.4726 /_ -152.8    1.0379    12.470
M1108269 ........... 2       7.4725 /_ -152.8    1.0379    12.470
L3235244 ........... 1        7.323 /_  -33.2    1.0171    12.470
M1069398 ........... 1       7.3228 /_  -33.2    1.0171    12.470
N1147862 ........... 1       7.2241 /_  -33.9    1.0034    12.470
L2685805 ........... 1        7.224 /_  -33.9    1.0034    12.470
M1069247 ........... 1        7.328 /_  -33.2    1.0178    12.470
M1069248 ........... 1       7.3278 /_  -33.2    1.0178    12.470
L2786273 ........... 2       7.4725 /_ -152.8    1.0379    12.470
M1108278 ........... 2       7.4724 /_ -152.8    1.0379    12.470
L3254238 ........... 1       7.1964 /_  -34.2   0.99957    12.470        1-2     12.588 /_   -3.7    1.0095
   -                 2       7.3573 /_ -153.9    1.0219    12.470        2-3     12.661 /_ -122.4    1.0153
   -                 3       7.4641 /_   88.7    1.0368    12.470        3-1     12.878 /_  116.7    1.0327
M1047303 ........... 1       7.1913 /_  -34.2   0.99886    12.470        1-2     12.582 /_   -3.7     1.009
   -                 2       7.3549 /_ -154.0    1.0216    12.470        2-3     12.658 /_ -122.4    1.0151
   -                 3       7.4636 /_   88.7    1.0367    12.470        3-1     12.874 /_  116.7    1.0324
M1047633 ........... 3       7.4035 /_   92.5    1.0283    12.470
L2897554 ........... 3        7.403 /_   92.5    1.0283    12.470
M1069627 ........... 2       7.1899 /_ -155.2   0.99866    12.470
L2897791 ........... 2       7.1856 /_ -155.2   0.99806    12.470
M1089097 ........... 2       7.4742 /_ -152.7    1.0382    12.470
M1108270 ........... 2       7.4738 /_ -152.7    1.0381    12.470
N1142101 ........... 1       7.0846 /_  -30.6   0.98404    12.470
L2936214 ........... 1       7.0846 /_  -30.6   0.98404    12.470
L3066810 ........... 3       7.3643 /_   92.2    1.0229    12.470
L2897769 ........... 3       7.3637 /_   92.2    1.0228    12.470
M1209758 ........... 2       7.5289 /_ -151.1    1.0457    12.470
M1209753 ........... 2       7.5263 /_ -151.1    1.0454    12.470
M1047528 ........... 1       7.4238 /_  -33.3    1.0312    12.470        1-2     13.025 /_   -4.5    1.0445
   -                 2       7.4334 /_ -155.8    1.0325    12.470        2-3     12.288 /_ -121.7   0.98544
   -                 3       7.4131 /_   92.5    1.0297    12.470        3-1     13.207 /_  119.6    1.0591
L2858166 ........... 1       7.4232 /_  -33.3    1.0311    12.470        1-2     13.024 /_   -4.5    1.0444
   -                 2       7.4332 /_ -155.8    1.0324    12.470        2-3     12.288 /_ -121.7    0.9854
   -                 3       7.4129 /_   92.5    1.0296    12.470        3-1     13.207 /_  119.6    1.0591
M1142843 ........... 1       7.3264 /_  -31.4    1.0176    12.470        1-2     12.869 /_   -1.0     1.032
   -                 2       7.5275 /_ -151.4    1.0456    12.470        2-3     12.957 /_ -120.2    1.0391
   -                 3       7.5993 /_   90.7    1.0555    12.470        3-1     13.059 /_  119.1    1.0472
L3081380 ........... 1       7.3257 /_  -31.4    1.0175    12.470        1-2     12.865 /_   -1.0    1.0317
   -                 2       7.5263 /_ -151.5    1.0454    12.470        2-3     12.955 /_ -120.2    1.0389
   -                 3       7.5953 /_   90.6     1.055    12.470        3-1     13.055 /_  119.0    1.0469
L2804272 ........... 2        7.321 /_ -154.9    1.0169    12.470
L2841641 ........... 2        7.321 /_ -154.9    1.0169    12.470
M1069393 ........... 2       7.2392 /_ -156.4    1.0055    12.470
M1069408 ........... 2        7.237 /_ -156.4    1.0052    12.470
N1142104 ........... 1       7.0588 /_  -30.6   0.98046    12.470        1-2     12.672 /_   -0.2    1.0162
   -                 2       7.4852 /_ -151.7    1.0397    12.470        2-3     12.831 /_ -118.9     1.029
   -                 3       7.7033 /_   93.0      1.07    12.470        3-1     13.009 /_  119.9    1.0432
M1108500 ........... 1       7.0528 /_  -30.6   0.97962    12.470        1-2     12.666 /_   -0.2    1.0157
   -                 2       7.4833 /_ -151.8    1.0394    12.470        2-3     12.827 /_ -118.9    1.0287
   -                 3       7.7046 /_   93.0    1.0701    12.470        3-1     13.007 /_  119.8     1.043
L3216348 ........... 1       7.2654 /_  -33.5    1.0091    12.470
L2841627 ........... 1       7.2649 /_  -33.5    1.0091    12.470
L2916599 ........... 1        7.277 /_  -33.8    1.0108    12.470
M1047447 ........... 2       7.2159 /_ -156.4    1.0023    12.470
L2954349 ........... 2       7.2158 /_ -156.4    1.0023    12.470
L3235246 ........... 2       7.2567 /_ -156.2    1.0079    12.470
M1125911 ........... 2        7.513 /_ -151.6    1.0435    12.470
L2711224 ........... 2       7.5124 /_ -151.6    1.0434    12.470
N1147863 ........... 3       7.3813 /_   92.6    1.0252    12.470
L3122817 ........... 3       7.3813 /_   92.6    1.0252    12.470
M1186061 ........... 1       7.4486 /_  -31.1    1.0346    12.470        1-2      12.98 /_   -0.9    1.0409
   -                 2        7.542 /_ -151.0    1.0476    12.470        2-3     13.018 /_ -120.3    1.0439
   -                 3       7.5866 /_   90.2    1.0538    12.470        3-1     13.106 /_  119.3     1.051
L2861223 ........... 2        7.542 /_ -151.0    1.0476    12.470
M1069130 ........... 1         7.29 /_  -34.1    1.0126    12.470
L3085396 ........... 1       7.2898 /_  -34.1    1.0125    12.470
E182730 ............ 1       7.3282 /_  -33.4    1.0179    12.470
N1142109 ........... 1       7.3281 /_  -33.4    1.0179    12.470
M1069417 ........... 1       7.3257 /_  -33.2    1.0175    12.470        1-2      12.83 /_   -4.9    1.0289
   -                 2       7.2638 /_ -156.3    1.0089    12.470        2-3     12.093 /_ -121.9   0.96977
   -                 3       7.3583 /_   92.1     1.022    12.470        3-1     13.041 /_  119.4    1.0458
N1138597 ........... 1       7.3256 /_  -33.2    1.0175    12.470        1-2     12.829 /_   -4.9    1.0288
   -                 2       7.2627 /_ -156.3    1.0088    12.470        2-3     12.092 /_ -121.9   0.96968
   -                 3        7.358 /_   92.1     1.022    12.470        3-1      13.04 /_  119.4    1.0457
M1026987 ........... 2       7.2433 /_ -156.2    1.0061    12.470
M1026990 ........... 2       7.2411 /_ -156.2    1.0058    12.470
M1142832 ........... 1       7.3243 /_  -31.5    1.0173    12.470        1-2     12.858 /_   -1.1    1.0311
   -                 2       7.5238 /_ -151.5     1.045    12.470        2-3      12.95 /_ -120.3    1.0385
   -                 3       7.5871 /_   90.5    1.0538    12.470        3-1     13.046 /_  119.0    1.0462
L3160865 ........... 1       7.3239 /_  -31.5    1.0173    12.470        1-2     12.855 /_   -1.1    1.0309
   -                 2       7.5231 /_ -151.5    1.0449    12.470        2-3     12.949 /_ -120.4    1.0384
   -                 3       7.5847 /_   90.5    1.0535    12.470        3-1     13.044 /_  118.9     1.046
L2673323 ........... 3       7.3807 /_   92.6    1.0252    12.470
M1009809 ........... 3       7.3807 /_   92.6    1.0252    12.470
L2822869 ........... 1       7.3584 /_  -33.3    1.0221    12.470        1-2     12.932 /_   -4.5     1.037
   -                 2       7.3925 /_ -155.8    1.0268    12.470        2-3     12.226 /_ -121.7   0.98044
   -                 3       7.3815 /_   92.5    1.0253    12.470        3-1     13.123 /_  119.6    1.0524
M1026808 ........... 1       7.3539 /_  -33.3    1.0214    12.470        1-2     12.927 /_   -4.5    1.0367
   -                 2       7.3929 /_ -155.8    1.0268    12.470        2-3     12.224 /_ -121.7    0.9803
   -                 3       7.3793 /_   92.5     1.025    12.470        3-1     13.118 /_  119.6    1.0519
M1047825 ........... 2       7.2522 /_ -156.2    1.0073    12.470
M1069731 ........... 2       7.2519 /_ -156.2    1.0073    12.470
N1140520 ........... 3       7.3793 /_   92.5     1.025    12.470
L2729410 ........... 3       7.3793 /_   92.5     1.025    12.470
L3178978 ........... 1       7.2745 /_  -33.5    1.0104    12.470
M1069384 ........... 1       7.3235 /_  -33.2    1.0172    12.470
L3066805 ........... 1       7.3234 /_  -33.2    1.0172    12.470
M4362181 ........... 2       7.2078 /_ -156.5    1.0011    12.470
M1047319 ........... 3       7.4618 /_   88.7    1.0364    12.470
M1047318 ........... 3       7.4616 /_   88.7    1.0364    12.470
L3216358 ........... 1       7.2741 /_  -33.8    1.0103    12.470
M1026826 ........... 1       7.2734 /_  -33.8    1.0103    12.470
M1108276 ........... 2       7.4725 /_ -152.8    1.0379    12.470
M1089198 ........... 1       7.3466 /_  -31.4    1.0204    12.470        1-2     12.942 /_   -2.1    1.0379
   -                 2        7.456 /_ -153.3    1.0356    12.470        2-3     12.591 /_ -120.1    1.0097
   -                 3       7.5607 /_   92.7    1.0502    12.470        3-1     13.169 /_  120.2    1.0561
M1089201 ........... 1       7.3272 /_  -31.5    1.0177    12.470        1-2     12.924 /_   -2.3    1.0364
   -                 2       7.4464 /_ -153.6    1.0343    12.470        2-3     12.577 /_ -120.1    1.0086
   -                 3       7.5685 /_   92.7    1.0513    12.470        3-1     13.164 /_  120.1    1.0556
M1047763 ........... 1       7.2964 /_  -33.3    1.0135    12.470        1-2     12.805 /_   -4.7    1.0269
   -                 2       7.2842 /_ -156.1    1.0118    12.470        2-3     12.149 /_ -121.4   0.97422
   -                 3       7.4281 /_   92.6    1.0317    12.470        3-1     13.109 /_  119.4    1.0512
N1136027 ........... 1       7.2963 /_  -33.3    1.0134    12.470
L3101827 ........... 3       7.5231 /_   92.9    1.0449    12.470
M1108540 ........... 3       7.5223 /_   92.9    1.0448    12.470
M1026335 ........... 1       7.1461 /_  -34.2   0.99258    12.470
L2804259 ........... 1       7.1461 /_  -34.2   0.99257    12.470
N1136357 ........... 3       7.6216 /_   92.4    1.0586    12.470
M1047513 ........... 1       7.3816 /_  -33.3    1.0253    12.470        1-2      12.96 /_   -4.5    1.0393
   -                 2          7.4 /_ -155.8    1.0278    12.470        2-3     12.242 /_ -121.7   0.98175
   -                 3       7.3921 /_   92.5    1.0267    12.470        3-1     13.151 /_  119.6    1.0546
M1047507 ........... 1       7.3698 /_  -33.3    1.0236    12.470        1-2     12.943 /_   -4.5    1.0379
   -                 2       7.3917 /_ -155.8    1.0267    12.470        2-3     12.231 /_ -121.7    0.9808
   -                 3       7.3872 /_   92.5    1.0261    12.470        3-1     13.136 /_  119.6    1.0534
M1142863 ........... 1       7.3006 /_  -31.3     1.014    12.470        1-2     12.849 /_   -0.9    1.0304
   -                 2       7.5229 /_ -151.5    1.0449    12.470        2-3     12.945 /_ -120.1    1.0381
   -                 3       7.6085 /_   90.9    1.0568    12.470        3-1     13.053 /_  119.2    1.0468
N1141480 ........... 3       7.6085 /_   90.9    1.0568    12.470
M1125916 ........... 2       7.5135 /_ -151.6    1.0436    12.470
...